Version 4
SHEET 1 880 680
WIRE 288 48 144 48
WIRE 144 64 144 48
WIRE 288 96 288 48
WIRE 144 112 144 64
WIRE -208 160 -224 160
WIRE -160 160 -208 160
WIRE 64 160 32 160
WIRE 80 160 64 160
WIRE -224 192 -224 160
WIRE 288 192 288 176
WIRE 144 240 144 208
WIRE 144 272 144 240
WIRE -224 304 -224 272
WIRE 144 368 144 352
WIRE 144 464 144 432
FLAG 288 192 0
FLAG 144 464 0
FLAG -224 304 0
FLAG 144 64 Ve
FLAG 64 160 Vb
FLAG 144 240 Vc
FLAG -208 160 Vin
SYMBOL voltage 288 80 R0
WINDOW 123 0 0 Left 0
WINDOW 39 0 0 Left 0
SYMATTR InstName V1
SYMATTR Value 5
SYMBOL pnp 80 208 M180
SYMATTR InstName Q1
SYMBOL res 160 368 R180
WINDOW 0 36 76 Left 2
WINDOW 3 36 40 Left 2
SYMATTR InstName R1
SYMATTR Value 270
SYMBOL LED 128 368 R0
SYMATTR InstName LED
SYMBOL res -64 144 R90
WINDOW 0 0 56 VBottom 2
WINDOW 3 32 56 VTop 2
SYMATTR InstName R2
SYMATTR Value 4.7k
SYMBOL voltage -224 176 R0
WINDOW 3 -311 111 Invisible 2
WINDOW 123 0 0 Left 0
WINDOW 39 0 0 Left 0
WINDOW 0 -44 4 Left 2
SYMATTR Value PULSE(0 5 0 0 0 1e-3 2e-3)
SYMATTR InstName V2
SYMBOL Digital\\Logic\\74hct04 -32 96 R0
SYMATTR InstName U1
TEXT -232 344 Left 2 !.tran 0 20m 10m
